Circuit: * C:\Users\junsa\OneDrive\2022_summer\circuit_opt_python_package2022\OPAMP_SPICE\circuit_simulation_07_22\opamp1stage_good\using_typical\tb_ac_diff.asc

Ignoring BSIM parameter XL
Ignoring BSIM parameter XW
Ignoring BSIM parameter XL
Ignoring BSIM parameter XW
Direct Newton iteration for .op point succeeded.
Note: .fourier statements are only valid with a .tran command.
      No Fourier analysis performed.


acgain: MAX(v(out))=(28.101dB,-4.06907e-007°) FROM 1 TO 1e+011

Measurement "gbp" FAIL'ed

Measurement "aout" FAIL'ed

Measurement "gain" FAIL'ed

Measurement "gain_db" FAIL'ed


Date: Mon Aug 01 14:09:40 2022
Total elapsed time: 0.073 seconds.

tnom = 27
temp = 27
method = trap
totiter = 36
traniter = 0
tranpoints = 0
accept = 0
rejected = 0
matrix size = 16
fillins = 0
solver = Normal
Matrix Compiler1:      35 opcodes
Matrix Compiler2:      98 opcodes
