Circuit: * C:\Users\junsa\OneDrive\2022_summer\circuit_opt_python_package2022\OPAMP_SPICE\tsmc018_opamp1stage\ltspice\tb_dc_comm.asc

Ignoring BSIM parameter XL
Ignoring BSIM parameter XW
Ignoring BSIM parameter XL
Ignoring BSIM parameter XW

inmin: d(v(comm)-v(x1:2))=0.5 AT 0.470539
inmax: d(v(comm)-v(x1:2))=0.5 AT 1.40069
inrange: inmax-inmin=0.930153


Date: Wed Aug 03 16:54:51 2022
Total elapsed time: 0.107 seconds.

tnom = 27
temp = 27
method = trap
totiter = 392
traniter = 0
tranpoints = 0
accept = 0
rejected = 0
matrix size = 10
fillins = 0
solver = Normal
Matrix Compiler1: 444 bytes object code size  0.2/0.1/[0.1]
Matrix Compiler2: 828 bytes object code size  0.1/0.2/[0.1]

