Questionable use of curly braces in ".meas outrange param {min(abs(outmax-0.9),abs(0.9-outmin))*2}"
    Error: undefined symbol in: "min(abs([outmax]-0.9),abs(0.9-outmin))*2"
Circuit: * C:\Users\junsa\OneDrive\2022_summer\circuit_opt_python_package2022\OPAMP_SPICE\circuit_simulation_07_22\opamp1stage_good\using_typical\tb_dc_diff.asc

Ignoring BSIM parameter XL
Ignoring BSIM parameter XW
Ignoring BSIM parameter XL
Ignoring BSIM parameter XW

outmin: v(out)=0.418838 at -0.0508014
outmax: v(out)=1.7493 at 0.110815
outrange: (min(abs(outmax-0.9),abs(0.9-outmin))*2)=0.962325


Date: Mon Aug 01 12:51:22 2022
Total elapsed time: 0.076 seconds.

tnom = 27
temp = 27
method = trap
totiter = 757
traniter = 0
tranpoints = 0
accept = 0
rejected = 0
matrix size = 16
fillins = 0
solver = Normal
Matrix Compiler1: 582 bytes object code size  0.2/0.1/[0.1]
Matrix Compiler2: 1.20 KB object code size  0.1/0.1/[0.1]

