Circuit: * C:\Users\junsa\OneDrive\2022_summer\circuit_opt_python_package2022\OPAMP_SPICE\circuit_simulation_07_22\opamp1stage_good\using_typical\tb_dc_comm.asc

Ignoring BSIM parameter XL
Ignoring BSIM parameter XW
Ignoring BSIM parameter XL
Ignoring BSIM parameter XW

inmin: d(v(comm)-v(x1:2))=0.5 AT 0.470265
inmax: d(v(comm)-v(x1:2))=0.5 AT 1.44994
inrange: inmax-inmin=0.979671


Date: Mon Aug 01 13:23:32 2022
Total elapsed time: 0.046 seconds.

tnom = 27
temp = 27
method = trap
totiter = 407
traniter = 0
tranpoints = 0
accept = 0
rejected = 0
matrix size = 10
fillins = 0
solver = Normal
Matrix Compiler1: 444 bytes object code size  0.1/0.1/[0.1]
Matrix Compiler2: 828 bytes object code size  0.1/0.1/[0.1]

